Input Parameters:
   integrator                     = md-vv
   tinit                          = 0
   dt                             = 0.002
   nsteps                         = 500000
   init-step                      = 0
   simulation-part                = 1
   mts                            = false
   comm-mode                      = Linear
   nstcomm                        = 1
   bd-fric                        = 0
   ld-seed                        = -1616025603
   emtol                          = 10
   emstep                         = 0.01
   niter                          = 20
   fcstep                         = 0
   nstcgsteep                     = 1000
   nbfgscorr                      = 10
   rtpi                           = 0.05
   nstxout                        = 0
   nstvout                        = 0
   nstfout                        = 0
   nstlog                         = 1000
   nstcalcenergy                  = 1
   nstenergy                      = 1000
   nstxout-compressed             = 1000
   compressed-x-precision         = 1000
   cutoff-scheme                  = Verlet
   nstlist                        = 10
   pbc                            = xyz
   periodic-molecules             = false
   verlet-buffer-tolerance        = 0.005
   rlist                          = 0.9
   coulombtype                    = PME
   coulomb-modifier               = Potential-shift
   rcoulomb-switch                = 0.89
   rcoulomb                       = 0.9
   epsilon-r                      = 1
   epsilon-rf                     = inf
   vdw-type                       = Cut-off
   vdw-modifier                   = Potential-switch
   rvdw-switch                    = 0.85
   rvdw                           = 0.9
   DispCorr                       = AllEnerPres
   table-extension                = 1
   fourierspacing                 = 0.1
   fourier-nx                     = 42
   fourier-ny                     = 42
   fourier-nz                     = 42
   pme-order                      = 4
   ewald-rtol                     = 1e-05
   ewald-rtol-lj                  = 0.001
   lj-pme-comb-rule               = Geometric
   ewald-geometry                 = 0
   epsilon-surface                = 0
   tcoupl                         = V-rescale
   nsttcouple                     = 1
   nh-chain-length                = 0
   print-nose-hoover-chain-variables = false
   pcoupl                         = No
   pcoupltype                     = Isotropic
   nstpcouple                     = -1
   tau-p                          = 1
   compressibility (3x3):
      compressibility[    0]={ 0.00000e+00,  0.00000e+00,  0.00000e+00}
      compressibility[    1]={ 0.00000e+00,  0.00000e+00,  0.00000e+00}
      compressibility[    2]={ 0.00000e+00,  0.00000e+00,  0.00000e+00}
   ref-p (3x3):
      ref-p[    0]={ 0.00000e+00,  0.00000e+00,  0.00000e+00}
      ref-p[    1]={ 0.00000e+00,  0.00000e+00,  0.00000e+00}
      ref-p[    2]={ 0.00000e+00,  0.00000e+00,  0.00000e+00}
   refcoord-scaling               = No
   posres-com (3):
      posres-com[0]= 0.00000e+00
      posres-com[1]= 0.00000e+00
      posres-com[2]= 0.00000e+00
   posres-comB (3):
      posres-comB[0]= 0.00000e+00
      posres-comB[1]= 0.00000e+00
      posres-comB[2]= 0.00000e+00
   QMMM                           = false
qm-opts:
   ngQM                           = 0
   constraint-algorithm           = Lincs
   continuation                   = false
   Shake-SOR                      = false
   shake-tol                      = 0.0001
   lincs-order                    = 12
   lincs-iter                     = 2
   lincs-warnangle                = 30
   nwall                          = 0
   wall-type                      = 9-3
   wall-r-linpot                  = -1
   wall-atomtype[0]               = -1
   wall-atomtype[1]               = -1
   wall-density[0]                = 0
   wall-density[1]                = 0
   wall-ewald-zfac                = 3
   pull                           = false
   awh                            = false
   rotation                       = false
   interactiveMD                  = false
   disre                          = No
   disre-weighting                = Conservative
   disre-mixed                    = false
   dr-fc                          = 1000
   dr-tau                         = 0
   nstdisreout                    = 100
   orire-fc                       = 0
   orire-tau                      = 0
   nstorireout                    = 100
   free-energy                    = expanded
   init-lambda                    = -1
   init-lambda-state              = 0
   delta-lambda                   = 0
   nstdhdl                        = 1000
   n-lambdas                      = 40
   separate-dvdl:
       fep-lambdas =   FALSE
      mass-lambdas =   FALSE
      coul-lambdas =   TRUE
       vdw-lambdas =   TRUE
    bonded-lambdas =   FALSE
 restraint-lambdas =   TRUE
temperature-lambdas =   FALSE
all-lambdas:
       fep-lambdas =            0           0           0           0           0           0           0           0           0           0           0           0           0           0           0           0           0           0           0           0           0           0           0           0           0           0           0           0           0           0           0           0           0           0           0           0           0           0           0           0
      mass-lambdas =            0           0           0           0           0           0           0           0           0           0           0           0           0           0           0           0           0           0           0           0           0           0           0           0           0           0           0           0           0           0           0           0           0           0           0           0           0           0           0           0
      coul-lambdas =            0        0.05         0.1        0.15         0.2        0.25         0.3        0.35         0.4        0.45         0.5        0.55         0.6        0.65         0.7        0.75         0.8        0.85         0.9        0.95           1           1           1           1           1           1           1           1           1           1           1           1           1           1           1           1           1           1           1           1
       vdw-lambdas =            0           0           0           0           0           0           0           0           0           0           0           0           0           0           0           0           0           0           0           0           0         0.1         0.2         0.3         0.4        0.45         0.5        0.55         0.6        0.63        0.66        0.69        0.72        0.75        0.78        0.81        0.84        0.88        0.92           1
    bonded-lambdas =            0           0           0           0           0           0           0           0           0           0           0           0           0           0           0           0           0           0           0           0           0           0           0           0           0           0           0           0           0           0           0           0           0           0           0           0           0           0           0           0
 restraint-lambdas =            0      0.0005       0.001      0.0025       0.005      0.0075        0.01        0.05         0.1         0.2         0.3         0.4         0.5         0.6         0.7         0.8         0.9        0.95           1           1           1           1           1           1           1           1           1           1           1           1           1           1           1           1           1           1           1           1           1           1
temperature-lambdas =            0           0           0           0           0           0           0           0           0           0           0           0           0           0           0           0           0           0           0           0           0           0           0           0           0           0           0           0           0           0           0           0           0           0           0           0           0           0           0           0
   calc-lambda-neighbors          = -1
   dhdl-print-energy              = total
   sc-alpha                       = 0.5
   sc-power                       = 1
   sc-r-power                     = 6
   sc-sigma                       = 0.5
   sc-sigma-min                   = 0.5
   sc-coul                        = false
   dh-hist-size                   = 0
   dh-hist-spacing                = 0.1
   separate-dhdl-file             = yes
   dhdl-derivatives               = yes
   nstexpanded                    = 10
   lmc-stats                      = no
   lmc-move                       = metropolized-gibbs
   lmc-weights-equil              = no
   lmc-seed                       = 1000
   mc-temperature                 = 298
   lmc-repeats                    = 1
   lmc-gibbsdelta                 = -1
   lmc-forced-nstart              = 0
   symmetrized-transition-matrix  = true
   nst-transition-matrix          = 100000
   mininum-var-min                = 100
   weight-c-range                 = 0
   wl-scale                       = 0.8
   wl-ratio                       = 0.8
   init-wl-delta                  = 1
   wl-oneovert                    = false
      init-lambda-weights (40):
      init-lambda-weights[0]= 0.00000e+00
      init-lambda-weights[1]= 0.00000e+00
      init-lambda-weights[2]= 0.00000e+00
      init-lambda-weights[3]= 0.00000e+00
      init-lambda-weights[4]= 0.00000e+00
      init-lambda-weights[5]= 0.00000e+00
      init-lambda-weights[6]= 0.00000e+00
      init-lambda-weights[7]= 0.00000e+00
      init-lambda-weights[8]= 0.00000e+00
      init-lambda-weights[9]= 0.00000e+00
      init-lambda-weights[10]= 0.00000e+00
      init-lambda-weights[11]= 0.00000e+00
      init-lambda-weights[12]= 0.00000e+00
      init-lambda-weights[13]= 0.00000e+00
      init-lambda-weights[14]= 0.00000e+00
      init-lambda-weights[15]= 0.00000e+00
      init-lambda-weights[16]= 0.00000e+00
      init-lambda-weights[17]= 0.00000e+00
      init-lambda-weights[18]= 0.00000e+00
      init-lambda-weights[19]= 0.00000e+00
      init-lambda-weights[20]= 0.00000e+00
      init-lambda-weights[21]= 0.00000e+00
      init-lambda-weights[22]= 0.00000e+00
      init-lambda-weights[23]= 0.00000e+00
      init-lambda-weights[24]= 0.00000e+00
      init-lambda-weights[25]= 0.00000e+00
      init-lambda-weights[26]= 0.00000e+00
      init-lambda-weights[27]= 0.00000e+00
      init-lambda-weights[28]= 0.00000e+00
      init-lambda-weights[29]= 0.00000e+00
      init-lambda-weights[30]= 0.00000e+00
      init-lambda-weights[31]= 0.00000e+00
      init-lambda-weights[32]= 0.00000e+00
      init-lambda-weights[33]= 0.00000e+00
      init-lambda-weights[34]= 0.00000e+00
      init-lambda-weights[35]= 0.00000e+00
      init-lambda-weights[36]= 0.00000e+00
      init-lambda-weights[37]= 0.00000e+00
      init-lambda-weights[38]= 0.00000e+00
      init-lambda-weights[39]= 0.00000e+00
   init-weights                   = false
   cos-acceleration               = 0
   deform (3x3):
      deform[    0]={ 0.00000e+00,  0.00000e+00,  0.00000e+00}
      deform[    1]={ 0.00000e+00,  0.00000e+00,  0.00000e+00}
      deform[    2]={ 0.00000e+00,  0.00000e+00,  0.00000e+00}
   simulated-tempering            = false
   swapcoords                     = no
   userint1                       = 0
   userint2                       = 0
   userint3                       = 0
   userint4                       = 0
   userreal1                      = 0
   userreal2                      = 0
   userreal3                      = 0
   userreal4                      = 0
   applied-forces:
     electric-field:
       x:
         E0                       = 0
         omega                    = 0
         t0                       = 0
         sigma                    = 0
       y:
         E0                       = 0
         omega                    = 0
         t0                       = 0
         sigma                    = 0
       z:
         E0                       = 0
         omega                    = 0
         t0                       = 0
         sigma                    = 0
     density-guided-simulation:
       active                     = false
       group                      = protein
       similarity-measure         = inner-product
       atom-spreading-weight      = unity
       force-constant             = 1e+09
       gaussian-transform-spreading-width = 0.2
       gaussian-transform-spreading-range-in-multiples-of-width = 4
       reference-density-filename = reference.mrc
       nst                        = 1
       normalize-densities        = true
       adaptive-force-scaling     = false
       adaptive-force-scaling-time-constant = 4
       shift-vector               =
       transformation-matrix      =
grpopts:
   nrdf:       13442
   ref-t:         298
   tau-t:         0.5
annealing:          No
annealing-npoints:           0
   acc:	           0           0           0
   nfreeze:           N           N           N
   energygrp-flags[  0]: 0

Changing nstlist from 10 to 40, rlist from 0.9 to 1.004

Initializing Domain Decomposition on 128 ranks
Dynamic load balancing: auto
Minimum cell size due to atom displacement: 0.406 nm
Initial maximum distances in bonded interactions:
    two-body bonded interactions: 0.397 nm, LJC-14 q, atoms 151 157
  multi-body bonded interactions: 0.397 nm, Ryckaert-Bell., atoms 151 157
Minimum cell size due to bonded interactions: 0.437 nm
Maximum distance for 13 constraints, at 120 deg. angles, all-trans: 0.219 nm
Estimated maximum distance required for P-LINCS: 0.219 nm
Scaling the initial minimum size with 1/0.8 (option -dds) = 1.25
Guess for relative PME load: 0.41
Will use 72 particle-particle and 56 PME only ranks
This is a guess, check the performance at the end of the log file
Using 56 separate PME ranks, as guessed by mdrun
Optimizing the DD grid for 72 cells with a minimum initial size of 0.546 nm
The maximum allowed number of cells is: X 7 Y 7 Z 7
Domain decomposition grid 4 x 6 x 3, separate PME ranks 56
PME domain decomposition: 4 x 14 x 1
Interleaving PP and PME ranks
This rank does only particle-particle work.
Domain decomposition rank 0, coordinates 0 0 0

The initial number of communication pulses is: X 1 Y 2 Z 1
The initial domain decomposition cell size is: X 1.02 nm Y 0.68 nm Z 1.35 nm

The maximum allowed distance for atoms involved in interactions is:
                 non-bonded interactions           1.004 nm
            two-body bonded interactions  (-rdd)   1.004 nm
          multi-body bonded interactions  (-rdd)   0.676 nm
 atoms separated by up to 13 constraints  (-rcon)  0.676 nm

When dynamic load balancing gets turned on, these settings will change to:
The maximum number of communication pulses is: X 2 Y 2 Z 2
The minimum size for domain decomposition cells is 0.541 nm
The requested allowed shrink of DD cells (option -dds) is: 0.80
The allowed shrink of domain decomposition cells is: X 0.53 Y 0.80 Z 0.40
The maximum allowed distance for atoms involved in interactions is:
                 non-bonded interactions           1.004 nm
            two-body bonded interactions  (-rdd)   1.004 nm
          multi-body bonded interactions  (-rdd)   0.541 nm
 atoms separated by up to 13 constraints  (-rcon)  0.541 nm

Using 128 MPI processes

Non-default thread affinity set, disabling internal thread affinity

Using 1 OpenMP thread per MPI process

System total charge, top. A: -0.000 top. B: -1.000
Will do PME sum in reciprocal space for electrostatic interactions.

Using a Gaussian width (1/beta) of 0.288146 nm for Ewald
Potential shift: LJ r^-12: 0.000e+00 r^-6: 0.000e+00, Ewald -1.111e-05
Initialized non-bonded Ewald tables, spacing: 8.85e-04 size: 2266

Generated table with 1002 data points for 1-4 COUL.
Tabscale = 500 points/nm
Generated table with 1002 data points for 1-4 LJ6.
Tabscale = 500 points/nm
Generated table with 1002 data points for 1-4 LJ12.
Tabscale = 500 points/nm
Long Range LJ corr.: <C6> 2.9701e-04 <C12> 2.9954e-07

Using SIMD 4x8 nonbonded short-range kernels

Using a dual 4x8 pair-list setup updated with dynamic pruning:
  outer list: updated every 40 steps, buffer 0.104 nm, rlist 1.004 nm
  inner list: updated every 11 steps, buffer 0.002 nm, rlist 0.902 nm
At tolerance 0.005 kJ/mol/ps per atom, equivalent classical 1x1 list would be:
  outer list: updated every 40 steps, buffer 0.211 nm, rlist 1.111 nm
  inner list: updated every 11 steps, buffer 0.042 nm, rlist 0.942 nm
There are 49 atoms and 49 charges for free energy perturbation
Removing pbc first time

Initializing Parallel LINear Constraint Solver

The number of constraints is 73
There are constraints between atoms in different decomposition domains,
will communicate selected coordinates each lincs iteration

Linking all bonded interactions to atoms

Intra-simulation communication will occur every 1 steps.
Initial vector of lambda components:[     0.0000     0.0000     0.0000     0.0000     0.0000     0.0000     0.0000 ]

There are: 6656 Atoms
Atom distribution over 72 domains: av 92 stddev 11 min 72 max 107

You requested an expanded ensemble simulation with lmc-stats = no and activated PLUMED.
As a result, this simulation will use the bias provided by PLUMED and ignore all
expanded ensemble settings related to weight updates.
If you want to use lambda weights updated by GROMACS in the expanded ensemble calculation,
set lmc-stats != no.

Constraining the starting coordinates (step 0)
Center of mass motion removal mode is Linear
We have the following groups for center of mass motion removal:
  0:  rest
RMS relative constraint deviation after constraining: 0.00e+00
Initial temperature: 299.02 K

PLUMED: PLUMED is starting
PLUMED: Version: 2.8.0 (git: 81cd64d7c) compiled on Mar  9 2022 at 16:32:08
PLUMED: Please cite these papers when using PLUMED [1][2]
PLUMED: For further information see the PLUMED web page at http://www.plumed.org
PLUMED: Root: /jet/home/wehs7661/src/PLUMED/plumed2.8.0/plumed2/
PLUMED: For installed feature, see /jet/home/wehs7661/src/PLUMED/plumed2.8.0/plumed2//src/config/config.txt
PLUMED: Molecular dynamics engine: gromacs
PLUMED: Precision of reals: 4
PLUMED: Running over 72 nodes
PLUMED: Number of threads: 1
PLUMED: Cache line size: 512
PLUMED: Number of atoms: 6656
PLUMED: File suffix:
PLUMED: FILE: plumed.dat
PLUMED: Action CENTER
PLUMED:   with label center
PLUMED:   serial associated to this virtual atom is 6657
PLUMED:   of atoms:
PLUMED:  1 2 3 4 5 6 7 8 9 10 11 12 13 14 15 16 17 18 19 20 21 22 23 24 25
PLUMED:  26 27 28 29 30 31 32 33 34 35 36 37 38 39 40 41 42 43 44 45 46 47 48 49 50
PLUMED:  51 52 53 54 55 56 57 58 59 60 61 62 63 64 65 66 67 68 69 70 71 72 73 74 75
PLUMED:  76 77 78 79 80 81 82 83 84 85 86 87 88 89 90 91 92 93 94 95 96 97 98 99 100
PLUMED:  101 102 103 104 105 106 107 108 109 110 111 112 113 114 115 116 117 118 119 120 121 122 123 124 125
PLUMED:  126 127 128 129 130 131 132 133 134 135 136 137 138 139 140 141 142 143 144
PLUMED:  using the geometric center
PLUMED:   broken molecules will be rebuilt assuming atoms are in the proper order
PLUMED: Action GROUP
PLUMED:   with label water_group
PLUMED:   list of atoms:
PLUMED:  207 210 213 216 219 222 225 228 231 234 237 240 243 246 249 252 255 258 261 264 267 270 273 276 279
PLUMED:  282 285 288 291 294 297 300 303 306 309 312 315 318 321 324 327 330 333 336 339 342 345 348 351 354
PLUMED:  357 360 363 366 369 372 375 378 381 384 387 390 393 396 399 402 405 408 411 414 417 420 423 426 429
PLUMED:  432 435 438 441 444 447 450 453 456 459 462 465 468 471 474 477 480 483 486 489 492 495 498 501 504
PLUMED:  507 510 513 516 519 522 525 528 531 534 537 540 543 546 549 552 555 558 561 564 567 570 573 576 579
PLUMED:  582 585 588 591 594 597 600 603 606 609 612 615 618 621 624 627 630 633 636 639 642 645 648 651 654
PLUMED:  657 660 663 666 669 672 675 678 681 684 687 690 693 696 699 702 705 708 711 714 717 720 723 726 729
PLUMED:  732 735 738 741 744 747 750 753 756 759 762 765 768 771 774 777 780 783 786 789 792 795 798 801 804
PLUMED:  807 810 813 816 819 822 825 828 831 834 837 840 843 846 849 852 855 858 861 864 867 870 873 876 879
PLUMED:  882 885 888 891 894 897 900 903 906 909 912 915 918 921 924 927 930 933 936 939 942 945 948 951 954
PLUMED:  957 960 963 966 969 972 975 978 981 984 987 990 993 996 999 1002 1005 1008 1011 1014 1017 1020 1023 1026 1029
PLUMED:  1032 1035 1038 1041 1044 1047 1050 1053 1056 1059 1062 1065 1068 1071 1074 1077 1080 1083 1086 1089 1092 1095 1098 1101 1104
PLUMED:  1107 1110 1113 1116 1119 1122 1125 1128 1131 1134 1137 1140 1143 1146 1149 1152 1155 1158 1161 1164 1167 1170 1173 1176 1179
PLUMED:  1182 1185 1188 1191 1194 1197 1200 1203 1206 1209 1212 1215 1218 1221 1224 1227 1230 1233 1236 1239 1242 1245 1248 1251 1254
PLUMED:  1257 1260 1263 1266 1269 1272 1275 1278 1281 1284 1287 1290 1293 1296 1299 1302 1305 1308 1311 1314 1317 1320 1323 1326 1329
PLUMED:  1332 1335 1338 1341 1344 1347 1350 1353 1356 1359 1362 1365 1368 1371 1374 1377 1380 1383 1386 1389 1392 1395 1398 1401 1404
PLUMED:  1407 1410 1413 1416 1419 1422 1425 1428 1431 1434 1437 1440 1443 1446 1449 1452 1455 1458 1461 1464 1467 1470 1473 1476 1479
PLUMED:  1482 1485 1488 1491 1494 1497 1500 1503 1506 1509 1512 1515 1518 1521 1524 1527 1530 1533 1536 1539 1542 1545 1548 1551 1554
PLUMED:  1557 1560 1563 1566 1569 1572 1575 1578 1581 1584 1587 1590 1593 1596 1599 1602 1605 1608 1611 1614 1617 1620 1623 1626 1629
PLUMED:  1632 1635 1638 1641 1644 1647 1650 1653 1656 1659 1662 1665 1668 1671 1674 1677 1680 1683 1686 1689 1692 1695 1698 1701 1704
PLUMED:  1707 1710 1713 1716 1719 1722 1725 1728 1731 1734 1737 1740 1743 1746 1749 1752 1755 1758 1761 1764 1767 1770 1773 1776 1779
PLUMED:  1782 1785 1788 1791 1794 1797 1800 1803 1806 1809 1812 1815 1818 1821 1824 1827 1830 1833 1836 1839 1842 1845 1848 1851 1854
PLUMED:  1857 1860 1863 1866 1869 1872 1875 1878 1881 1884 1887 1890 1893 1896 1899 1902 1905 1908 1911 1914 1917 1920 1923 1926 1929
PLUMED:  1932 1935 1938 1941 1944 1947 1950 1953 1956 1959 1962 1965 1968 1971 1974 1977 1980 1983 1986 1989 1992 1995 1998 2001 2004
PLUMED:  2007 2010 2013 2016 2019 2022 2025 2028 2031 2034 2037 2040 2043 2046 2049 2052 2055 2058 2061 2064 2067 2070 2073 2076 2079
PLUMED:  2082 2085 2088 2091 2094 2097 2100 2103 2106 2109 2112 2115 2118 2121 2124 2127 2130 2133 2136 2139 2142 2145 2148 2151 2154
PLUMED:  2157 2160 2163 2166 2169 2172 2175 2178 2181 2184 2187 2190 2193 2196 2199 2202 2205 2208 2211 2214 2217 2220 2223 2226 2229
PLUMED:  2232 2235 2238 2241 2244 2247 2250 2253 2256 2259 2262 2265 2268 2271 2274 2277 2280 2283 2286 2289 2292 2295 2298 2301 2304
PLUMED:  2307 2310 2313 2316 2319 2322 2325 2328 2331 2334 2337 2340 2343 2346 2349 2352 2355 2358 2361 2364 2367 2370 2373 2376 2379
PLUMED:  2382 2385 2388 2391 2394 2397 2400 2403 2406 2409 2412 2415 2418 2421 2424 2427 2430 2433 2436 2439 2442 2445 2448 2451 2454
PLUMED:  2457 2460 2463 2466 2469 2472 2475 2478 2481 2484 2487 2490 2493 2496 2499 2502 2505 2508 2511 2514 2517 2520 2523 2526 2529
PLUMED:  2532 2535 2538 2541 2544 2547 2550 2553 2556 2559 2562 2565 2568 2571 2574 2577 2580 2583 2586 2589 2592 2595 2598 2601 2604
PLUMED:  2607 2610 2613 2616 2619 2622 2625 2628 2631 2634 2637 2640 2643 2646 2649 2652 2655 2658 2661 2664 2667 2670 2673 2676 2679
PLUMED:  2682 2685 2688 2691 2694 2697 2700 2703 2706 2709 2712 2715 2718 2721 2724 2727 2730 2733 2736 2739 2742 2745 2748 2751 2754
PLUMED:  2757 2760 2763 2766 2769 2772 2775 2778 2781 2784 2787 2790 2793 2796 2799 2802 2805 2808 2811 2814 2817 2820 2823 2826 2829
PLUMED:  2832 2835 2838 2841 2844 2847 2850 2853 2856 2859 2862 2865 2868 2871 2874 2877 2880 2883 2886 2889 2892 2895 2898 2901 2904
PLUMED:  2907 2910 2913 2916 2919 2922 2925 2928 2931 2934 2937 2940 2943 2946 2949 2952 2955 2958 2961 2964 2967 2970 2973 2976 2979
PLUMED:  2982 2985 2988 2991 2994 2997 3000 3003 3006 3009 3012 3015 3018 3021 3024 3027 3030 3033 3036 3039 3042 3045 3048 3051 3054
PLUMED:  3057 3060 3063 3066 3069 3072 3075 3078 3081 3084 3087 3090 3093 3096 3099 3102 3105 3108 3111 3114 3117 3120 3123 3126 3129
PLUMED:  3132 3135 3138 3141 3144 3147 3150 3153 3156 3159 3162 3165 3168 3171 3174 3177 3180 3183 3186 3189 3192 3195 3198 3201 3204
PLUMED:  3207 3210 3213 3216 3219 3222 3225 3228 3231 3234 3237 3240 3243 3246 3249 3252 3255 3258 3261 3264 3267 3270 3273 3276 3279
PLUMED:  3282 3285 3288 3291 3294 3297 3300 3303 3306 3309 3312 3315 3318 3321 3324 3327 3330 3333 3336 3339 3342 3345 3348 3351 3354
PLUMED:  3357 3360 3363 3366 3369 3372 3375 3378 3381 3384 3387 3390 3393 3396 3399 3402 3405 3408 3411 3414 3417 3420 3423 3426 3429
PLUMED:  3432 3435 3438 3441 3444 3447 3450 3453 3456 3459 3462 3465 3468 3471 3474 3477 3480 3483 3486 3489 3492 3495 3498 3501 3504
PLUMED:  3507 3510 3513 3516 3519 3522 3525 3528 3531 3534 3537 3540 3543 3546 3549 3552 3555 3558 3561 3564 3567 3570 3573 3576 3579
PLUMED:  3582 3585 3588 3591 3594 3597 3600 3603 3606 3609 3612 3615 3618 3621 3624 3627 3630 3633 3636 3639 3642 3645 3648 3651 3654
PLUMED:  3657 3660 3663 3666 3669 3672 3675 3678 3681 3684 3687 3690 3693 3696 3699 3702 3705 3708 3711 3714 3717 3720 3723 3726 3729
PLUMED:  3732 3735 3738 3741 3744 3747 3750 3753 3756 3759 3762 3765 3768 3771 3774 3777 3780 3783 3786 3789 3792 3795 3798 3801 3804
PLUMED:  3807 3810 3813 3816 3819 3822 3825 3828 3831 3834 3837 3840 3843 3846 3849 3852 3855 3858 3861 3864 3867 3870 3873 3876 3879
PLUMED:  3882 3885 3888 3891 3894 3897 3900 3903 3906 3909 3912 3915 3918 3921 3924 3927 3930 3933 3936 3939 3942 3945 3948 3951 3954
PLUMED:  3957 3960 3963 3966 3969 3972 3975 3978 3981 3984 3987 3990 3993 3996 3999 4002 4005 4008 4011 4014 4017 4020 4023 4026 4029
PLUMED:  4032 4035 4038 4041 4044 4047 4050 4053 4056 4059 4062 4065 4068 4071 4074 4077 4080 4083 4086 4089 4092 4095 4098 4101 4104
PLUMED:  4107 4110 4113 4116 4119 4122 4125 4128 4131 4134 4137 4140 4143 4146 4149 4152 4155 4158 4161 4164 4167 4170 4173 4176 4179
PLUMED:  4182 4185 4188 4191 4194 4197 4200 4203 4206 4209 4212 4215 4218 4221 4224 4227 4230 4233 4236 4239 4242 4245 4248 4251 4254
PLUMED:  4257 4260 4263 4266 4269 4272 4275 4278 4281 4284 4287 4290 4293 4296 4299 4302 4305 4308 4311 4314 4317 4320 4323 4326 4329
PLUMED:  4332 4335 4338 4341 4344 4347 4350 4353 4356 4359 4362 4365 4368 4371 4374 4377 4380 4383 4386 4389 4392 4395 4398 4401 4404
PLUMED:  4407 4410 4413 4416 4419 4422 4425 4428 4431 4434 4437 4440 4443 4446 4449 4452 4455 4458 4461 4464 4467 4470 4473 4476 4479
PLUMED:  4482 4485 4488 4491 4494 4497 4500 4503 4506 4509 4512 4515 4518 4521 4524 4527 4530 4533 4536 4539 4542 4545 4548 4551 4554
PLUMED:  4557 4560 4563 4566 4569 4572 4575 4578 4581 4584 4587 4590 4593 4596 4599 4602 4605 4608 4611 4614 4617 4620 4623 4626 4629
PLUMED:  4632 4635 4638 4641 4644 4647 4650 4653 4656 4659 4662 4665 4668 4671 4674 4677 4680 4683 4686 4689 4692 4695 4698 4701 4704
PLUMED:  4707 4710 4713 4716 4719 4722 4725 4728 4731 4734 4737 4740 4743 4746 4749 4752 4755 4758 4761 4764 4767 4770 4773 4776 4779
PLUMED:  4782 4785 4788 4791 4794 4797 4800 4803 4806 4809 4812 4815 4818 4821 4824 4827 4830 4833 4836 4839 4842 4845 4848 4851 4854
PLUMED:  4857 4860 4863 4866 4869 4872 4875 4878 4881 4884 4887 4890 4893 4896 4899 4902 4905 4908 4911 4914 4917 4920 4923 4926 4929
PLUMED:  4932 4935 4938 4941 4944 4947 4950 4953 4956 4959 4962 4965 4968 4971 4974 4977 4980 4983 4986 4989 4992 4995 4998 5001 5004
PLUMED:  5007 5010 5013 5016 5019 5022 5025 5028 5031 5034 5037 5040 5043 5046 5049 5052 5055 5058 5061 5064 5067 5070 5073 5076 5079
PLUMED:  5082 5085 5088 5091 5094 5097 5100 5103 5106 5109 5112 5115 5118 5121 5124 5127 5130 5133 5136 5139 5142 5145 5148 5151 5154
PLUMED:  5157 5160 5163 5166 5169 5172 5175 5178 5181 5184 5187 5190 5193 5196 5199 5202 5205 5208 5211 5214 5217 5220 5223 5226 5229
PLUMED:  5232 5235 5238 5241 5244 5247 5250 5253 5256 5259 5262 5265 5268 5271 5274 5277 5280 5283 5286 5289 5292 5295 5298 5301 5304
PLUMED:  5307 5310 5313 5316 5319 5322 5325 5328 5331 5334 5337 5340 5343 5346 5349 5352 5355 5358 5361 5364 5367 5370 5373 5376 5379
PLUMED:  5382 5385 5388 5391 5394 5397 5400 5403 5406 5409 5412 5415 5418 5421 5424 5427 5430 5433 5436 5439 5442 5445 5448 5451 5454
PLUMED:  5457 5460 5463 5466 5469 5472 5475 5478 5481 5484 5487 5490 5493 5496 5499 5502 5505 5508 5511 5514 5517 5520 5523 5526 5529
PLUMED:  5532 5535 5538 5541 5544 5547 5550 5553 5556 5559 5562 5565 5568 5571 5574 5577 5580 5583 5586 5589 5592 5595 5598 5601 5604
PLUMED:  5607 5610 5613 5616 5619 5622 5625 5628 5631 5634 5637 5640 5643 5646 5649 5652 5655 5658 5661 5664 5667 5670 5673 5676 5679
PLUMED:  5682 5685 5688 5691 5694 5697 5700 5703 5706 5709 5712 5715 5718 5721 5724 5727 5730 5733 5736 5739 5742 5745 5748 5751 5754
PLUMED:  5757 5760 5763 5766 5769 5772 5775 5778 5781 5784 5787 5790 5793 5796 5799 5802 5805 5808 5811 5814 5817 5820 5823 5826 5829
PLUMED:  5832 5835 5838 5841 5844 5847 5850 5853 5856 5859 5862 5865 5868 5871 5874 5877 5880 5883 5886 5889 5892 5895 5898 5901 5904
PLUMED:  5907 5910 5913 5916 5919 5922 5925 5928 5931 5934 5937 5940 5943 5946 5949 5952 5955 5958 5961 5964 5967 5970 5973 5976 5979
PLUMED:  5982 5985 5988 5991 5994 5997 6000 6003 6006 6009 6012 6015 6018 6021 6024 6027 6030 6033 6036 6039 6042 6045 6048 6051 6054
PLUMED:  6057 6060 6063 6066 6069 6072 6075 6078 6081 6084 6087 6090 6093 6096 6099 6102 6105 6108 6111 6114 6117 6120 6123 6126 6129
PLUMED:  6132 6135 6138 6141 6144 6147 6150 6153 6156 6159 6162 6165 6168 6171 6174 6177 6180 6183 6186 6189 6192 6195 6198 6201 6204
PLUMED:  6207 6210 6213 6216 6219 6222 6225 6228 6231 6234 6237 6240 6243 6246 6249 6252 6255 6258 6261 6264 6267 6270 6273 6276 6279
PLUMED:  6282 6285 6288 6291 6294 6297 6300 6303 6306 6309 6312 6315 6318 6321 6324 6327 6330 6333 6336 6339 6342 6345 6348 6351 6354
PLUMED:  6357 6360 6363 6366 6369 6372 6375 6378 6381 6384 6387 6390 6393 6396 6399 6402 6405 6408 6411 6414 6417 6420 6423 6426 6429
PLUMED:  6432 6435 6438 6441 6444 6447 6450 6453 6456 6459 6462 6465 6468 6471 6474 6477 6480 6483 6486 6489 6492 6495 6498 6501 6504
PLUMED:  6507 6510 6513 6516 6519 6522 6525 6528 6531 6534 6537 6540 6543 6546 6549 6552 6555 6558 6561 6564 6567 6570 6573 6576 6579
PLUMED:  6582 6585 6588 6591 6594 6597 6600 6603 6606 6609 6612 6615 6618 6621 6624 6627 6630 6633 6636 6639 6642 6645 6648 6651 6654
PLUMED: Action COORDINATION
PLUMED:   with label n
PLUMED:   between two groups of 1 and 2150 atoms
PLUMED:   first group:
PLUMED:   6657
PLUMED:   second group:
PLUMED:   207  210  213  216  219  222  225  228  231  234  237  240  243  246  249  252  255  258  261  264  267  270  273  276
PLUMED:   279  282  285  288  291  294  297  300  303  306  309  312  315  318  321  324  327  330  333  336  339  342  345  348  351
PLUMED:   354  357  360  363  366  369  372  375  378  381  384  387  390  393  396  399  402  405  408  411  414  417  420  423  426
PLUMED:   429  432  435  438  441  444  447  450  453  456  459  462  465  468  471  474  477  480  483  486  489  492  495  498  501
PLUMED:   504  507  510  513  516  519  522  525  528  531  534  537  540  543  546  549  552  555  558  561  564  567  570  573  576
PLUMED:   579  582  585  588  591  594  597  600  603  606  609  612  615  618  621  624  627  630  633  636  639  642  645  648  651
PLUMED:   654  657  660  663  666  669  672  675  678  681  684  687  690  693  696  699  702  705  708  711  714  717  720  723  726
PLUMED:   729  732  735  738  741  744  747  750  753  756  759  762  765  768  771  774  777  780  783  786  789  792  795  798  801
PLUMED:   804  807  810  813  816  819  822  825  828  831  834  837  840  843  846  849  852  855  858  861  864  867  870  873  876
PLUMED:   879  882  885  888  891  894  897  900  903  906  909  912  915  918  921  924  927  930  933  936  939  942  945  948  951
PLUMED:   954  957  960  963  966  969  972  975  978  981  984  987  990  993  996  999  1002  1005  1008  1011  1014  1017  1020  1023  1026
PLUMED:   1029  1032  1035  1038  1041  1044  1047  1050  1053  1056  1059  1062  1065  1068  1071  1074  1077  1080  1083  1086  1089  1092  1095  1098  1101
PLUMED:   1104  1107  1110  1113  1116  1119  1122  1125  1128  1131  1134  1137  1140  1143  1146  1149  1152  1155  1158  1161  1164  1167  1170  1173  1176
PLUMED:   1179  1182  1185  1188  1191  1194  1197  1200  1203  1206  1209  1212  1215  1218  1221  1224  1227  1230  1233  1236  1239  1242  1245  1248  1251
PLUMED:   1254  1257  1260  1263  1266  1269  1272  1275  1278  1281  1284  1287  1290  1293  1296  1299  1302  1305  1308  1311  1314  1317  1320  1323  1326
PLUMED:   1329  1332  1335  1338  1341  1344  1347  1350  1353  1356  1359  1362  1365  1368  1371  1374  1377  1380  1383  1386  1389  1392  1395  1398  1401
PLUMED:   1404  1407  1410  1413  1416  1419  1422  1425  1428  1431  1434  1437  1440  1443  1446  1449  1452  1455  1458  1461  1464  1467  1470  1473  1476
PLUMED:   1479  1482  1485  1488  1491  1494  1497  1500  1503  1506  1509  1512  1515  1518  1521  1524  1527  1530  1533  1536  1539  1542  1545  1548  1551
PLUMED:   1554  1557  1560  1563  1566  1569  1572  1575  1578  1581  1584  1587  1590  1593  1596  1599  1602  1605  1608  1611  1614  1617  1620  1623  1626
PLUMED:   1629  1632  1635  1638  1641  1644  1647  1650  1653  1656  1659  1662  1665  1668  1671  1674  1677  1680  1683  1686  1689  1692  1695  1698  1701
PLUMED:   1704  1707  1710  1713  1716  1719  1722  1725  1728  1731  1734  1737  1740  1743  1746  1749  1752  1755  1758  1761  1764  1767  1770  1773  1776
PLUMED:   1779  1782  1785  1788  1791  1794  1797  1800  1803  1806  1809  1812  1815  1818  1821  1824  1827  1830  1833  1836  1839  1842  1845  1848  1851
PLUMED:   1854  1857  1860  1863  1866  1869  1872  1875  1878  1881  1884  1887  1890  1893  1896  1899  1902  1905  1908  1911  1914  1917  1920  1923  1926
PLUMED:   1929  1932  1935  1938  1941  1944  1947  1950  1953  1956  1959  1962  1965  1968  1971  1974  1977  1980  1983  1986  1989  1992  1995  1998  2001
PLUMED:   2004  2007  2010  2013  2016  2019  2022  2025  2028  2031  2034  2037  2040  2043  2046  2049  2052  2055  2058  2061  2064  2067  2070  2073  2076
PLUMED:   2079  2082  2085  2088  2091  2094  2097  2100  2103  2106  2109  2112  2115  2118  2121  2124  2127  2130  2133  2136  2139  2142  2145  2148  2151
PLUMED:   2154  2157  2160  2163  2166  2169  2172  2175  2178  2181  2184  2187  2190  2193  2196  2199  2202  2205  2208  2211  2214  2217  2220  2223  2226
PLUMED:   2229  2232  2235  2238  2241  2244  2247  2250  2253  2256  2259  2262  2265  2268  2271  2274  2277  2280  2283  2286  2289  2292  2295  2298  2301
PLUMED:   2304  2307  2310  2313  2316  2319  2322  2325  2328  2331  2334  2337  2340  2343  2346  2349  2352  2355  2358  2361  2364  2367  2370  2373  2376
PLUMED:   2379  2382  2385  2388  2391  2394  2397  2400  2403  2406  2409  2412  2415  2418  2421  2424  2427  2430  2433  2436  2439  2442  2445  2448  2451
PLUMED:   2454  2457  2460  2463  2466  2469  2472  2475  2478  2481  2484  2487  2490  2493  2496  2499  2502  2505  2508  2511  2514  2517  2520  2523  2526
PLUMED:   2529  2532  2535  2538  2541  2544  2547  2550  2553  2556  2559  2562  2565  2568  2571  2574  2577  2580  2583  2586  2589  2592  2595  2598  2601
PLUMED:   2604  2607  2610  2613  2616  2619  2622  2625  2628  2631  2634  2637  2640  2643  2646  2649  2652  2655  2658  2661  2664  2667  2670  2673  2676
PLUMED:   2679  2682  2685  2688  2691  2694  2697  2700  2703  2706  2709  2712  2715  2718  2721  2724  2727  2730  2733  2736  2739  2742  2745  2748  2751
PLUMED:   2754  2757  2760  2763  2766  2769  2772  2775  2778  2781  2784  2787  2790  2793  2796  2799  2802  2805  2808  2811  2814  2817  2820  2823  2826
PLUMED:   2829  2832  2835  2838  2841  2844  2847  2850  2853  2856  2859  2862  2865  2868  2871  2874  2877  2880  2883  2886  2889  2892  2895  2898  2901
PLUMED:   2904  2907  2910  2913  2916  2919  2922  2925  2928  2931  2934  2937  2940  2943  2946  2949  2952  2955  2958  2961  2964  2967  2970  2973  2976
PLUMED:   2979  2982  2985  2988  2991  2994  2997  3000  3003  3006  3009  3012  3015  3018  3021  3024  3027  3030  3033  3036  3039  3042  3045  3048  3051
PLUMED:   3054  3057  3060  3063  3066  3069  3072  3075  3078  3081  3084  3087  3090  3093  3096  3099  3102  3105  3108  3111  3114  3117  3120  3123  3126
PLUMED:   3129  3132  3135  3138  3141  3144  3147  3150  3153  3156  3159  3162  3165  3168  3171  3174  3177  3180  3183  3186  3189  3192  3195  3198  3201
PLUMED:   3204  3207  3210  3213  3216  3219  3222  3225  3228  3231  3234  3237  3240  3243  3246  3249  3252  3255  3258  3261  3264  3267  3270  3273  3276
PLUMED:   3279  3282  3285  3288  3291  3294  3297  3300  3303  3306  3309  3312  3315  3318  3321  3324  3327  3330  3333  3336  3339  3342  3345  3348  3351
PLUMED:   3354  3357  3360  3363  3366  3369  3372  3375  3378  3381  3384  3387  3390  3393  3396  3399  3402  3405  3408  3411  3414  3417  3420  3423  3426
PLUMED:   3429  3432  3435  3438  3441  3444  3447  3450  3453  3456  3459  3462  3465  3468  3471  3474  3477  3480  3483  3486  3489  3492  3495  3498  3501
PLUMED:   3504  3507  3510  3513  3516  3519  3522  3525  3528  3531  3534  3537  3540  3543  3546  3549  3552  3555  3558  3561  3564  3567  3570  3573  3576
PLUMED:   3579  3582  3585  3588  3591  3594  3597  3600  3603  3606  3609  3612  3615  3618  3621  3624  3627  3630  3633  3636  3639  3642  3645  3648  3651
PLUMED:   3654  3657  3660  3663  3666  3669  3672  3675  3678  3681  3684  3687  3690  3693  3696  3699  3702  3705  3708  3711  3714  3717  3720  3723  3726
PLUMED:   3729  3732  3735  3738  3741  3744  3747  3750  3753  3756  3759  3762  3765  3768  3771  3774  3777  3780  3783  3786  3789  3792  3795  3798  3801
PLUMED:   3804  3807  3810  3813  3816  3819  3822  3825  3828  3831  3834  3837  3840  3843  3846  3849  3852  3855  3858  3861  3864  3867  3870  3873  3876
PLUMED:   3879  3882  3885  3888  3891  3894  3897  3900  3903  3906  3909  3912  3915  3918  3921  3924  3927  3930  3933  3936  3939  3942  3945  3948  3951
PLUMED:   3954  3957  3960  3963  3966  3969  3972  3975  3978  3981  3984  3987  3990  3993  3996  3999  4002  4005  4008  4011  4014  4017  4020  4023  4026
PLUMED:   4029  4032  4035  4038  4041  4044  4047  4050  4053  4056  4059  4062  4065  4068  4071  4074  4077  4080  4083  4086  4089  4092  4095  4098  4101
PLUMED:   4104  4107  4110  4113  4116  4119  4122  4125  4128  4131  4134  4137  4140  4143  4146  4149  4152  4155  4158  4161  4164  4167  4170  4173  4176
PLUMED:   4179  4182  4185  4188  4191  4194  4197  4200  4203  4206  4209  4212  4215  4218  4221  4224  4227  4230  4233  4236  4239  4242  4245  4248  4251
PLUMED:   4254  4257  4260  4263  4266  4269  4272  4275  4278  4281  4284  4287  4290  4293  4296  4299  4302  4305  4308  4311  4314  4317  4320  4323  4326
PLUMED:   4329  4332  4335  4338  4341  4344  4347  4350  4353  4356  4359  4362  4365  4368  4371  4374  4377  4380  4383  4386  4389  4392  4395  4398  4401
PLUMED:   4404  4407  4410  4413  4416  4419  4422  4425  4428  4431  4434  4437  4440  4443  4446  4449  4452  4455  4458  4461  4464  4467  4470  4473  4476
PLUMED:   4479  4482  4485  4488  4491  4494  4497  4500  4503  4506  4509  4512  4515  4518  4521  4524  4527  4530  4533  4536  4539  4542  4545  4548  4551
PLUMED:   4554  4557  4560  4563  4566  4569  4572  4575  4578  4581  4584  4587  4590  4593  4596  4599  4602  4605  4608  4611  4614  4617  4620  4623  4626
PLUMED:   4629  4632  4635  4638  4641  4644  4647  4650  4653  4656  4659  4662  4665  4668  4671  4674  4677  4680  4683  4686  4689  4692  4695  4698  4701
PLUMED:   4704  4707  4710  4713  4716  4719  4722  4725  4728  4731  4734  4737  4740  4743  4746  4749  4752  4755  4758  4761  4764  4767  4770  4773  4776
PLUMED:   4779  4782  4785  4788  4791  4794  4797  4800  4803  4806  4809  4812  4815  4818  4821  4824  4827  4830  4833  4836  4839  4842  4845  4848  4851
PLUMED:   4854  4857  4860  4863  4866  4869  4872  4875  4878  4881  4884  4887  4890  4893  4896  4899  4902  4905  4908  4911  4914  4917  4920  4923  4926
PLUMED:   4929  4932  4935  4938  4941  4944  4947  4950  4953  4956  4959  4962  4965  4968  4971  4974  4977  4980  4983  4986  4989  4992  4995  4998  5001
PLUMED:   5004  5007  5010  5013  5016  5019  5022  5025  5028  5031  5034  5037  5040  5043  5046  5049  5052  5055  5058  5061  5064  5067  5070  5073  5076
PLUMED:   5079  5082  5085  5088  5091  5094  5097  5100  5103  5106  5109  5112  5115  5118  5121  5124  5127  5130  5133  5136  5139  5142  5145  5148  5151
PLUMED:   5154  5157  5160  5163  5166  5169  5172  5175  5178  5181  5184  5187  5190  5193  5196  5199  5202  5205  5208  5211  5214  5217  5220  5223  5226
PLUMED:   5229  5232  5235  5238  5241  5244  5247  5250  5253  5256  5259  5262  5265  5268  5271  5274  5277  5280  5283  5286  5289  5292  5295  5298  5301
PLUMED:   5304  5307  5310  5313  5316  5319  5322  5325  5328  5331  5334  5337  5340  5343  5346  5349  5352  5355  5358  5361  5364  5367  5370  5373  5376
PLUMED:   5379  5382  5385  5388  5391  5394  5397  5400  5403  5406  5409  5412  5415  5418  5421  5424  5427  5430  5433  5436  5439  5442  5445  5448  5451
PLUMED:   5454  5457  5460  5463  5466  5469  5472  5475  5478  5481  5484  5487  5490  5493  5496  5499  5502  5505  5508  5511  5514  5517  5520  5523  5526
PLUMED:   5529  5532  5535  5538  5541  5544  5547  5550  5553  5556  5559  5562  5565  5568  5571  5574  5577  5580  5583  5586  5589  5592  5595  5598  5601
PLUMED:   5604  5607  5610  5613  5616  5619  5622  5625  5628  5631  5634  5637  5640  5643  5646  5649  5652  5655  5658  5661  5664  5667  5670  5673  5676
PLUMED:   5679  5682  5685  5688  5691  5694  5697  5700  5703  5706  5709  5712  5715  5718  5721  5724  5727  5730  5733  5736  5739  5742  5745  5748  5751
PLUMED:   5754  5757  5760  5763  5766  5769  5772  5775  5778  5781  5784  5787  5790  5793  5796  5799  5802  5805  5808  5811  5814  5817  5820  5823  5826
PLUMED:   5829  5832  5835  5838  5841  5844  5847  5850  5853  5856  5859  5862  5865  5868  5871  5874  5877  5880  5883  5886  5889  5892  5895  5898  5901
PLUMED:   5904  5907  5910  5913  5916  5919  5922  5925  5928  5931  5934  5937  5940  5943  5946  5949  5952  5955  5958  5961  5964  5967  5970  5973  5976
PLUMED:   5979  5982  5985  5988  5991  5994  5997  6000  6003  6006  6009  6012  6015  6018  6021  6024  6027  6030  6033  6036  6039  6042  6045  6048  6051
PLUMED:   6054  6057  6060  6063  6066  6069  6072  6075  6078  6081  6084  6087  6090  6093  6096  6099  6102  6105  6108  6111  6114  6117  6120  6123  6126
PLUMED:   6129  6132  6135  6138  6141  6144  6147  6150  6153  6156  6159  6162  6165  6168  6171  6174  6177  6180  6183  6186  6189  6192  6195  6198  6201
PLUMED:   6204  6207  6210  6213  6216  6219  6222  6225  6228  6231  6234  6237  6240  6243  6246  6249  6252  6255  6258  6261  6264  6267  6270  6273  6276
PLUMED:   6279  6282  6285  6288  6291  6294  6297  6300  6303  6306  6309  6312  6315  6318  6321  6324  6327  6330  6333  6336  6339  6342  6345  6348  6351
PLUMED:   6354  6357  6360  6363  6366  6369  6372  6375  6378  6381  6384  6387  6390  6393  6396  6399  6402  6405  6408  6411  6414  6417  6420  6423  6426
PLUMED:   6429  6432  6435  6438  6441  6444  6447  6450  6453  6456  6459  6462  6465  6468  6471  6474  6477  6480  6483  6486  6489  6492  6495  6498  6501
PLUMED:   6504  6507  6510  6513  6516  6519  6522  6525  6528  6531  6534  6537  6540  6543  6546  6549  6552  6555  6558  6561  6564  6567  6570  6573  6576
PLUMED:   6579  6582  6585  6588  6591  6594  6597  6600  6603  6606  6609  6612  6615  6618  6621  6624  6627  6630  6633  6636  6639  6642  6645  6648  6651
PLUMED:   6654
PLUMED:   using periodic boundary conditions
PLUMED:   contacts are counted with cutoff 0.35.  Using rational switching function with parameters d0=0 nn=6 mm=12
PLUMED: Action EXTRACV
PLUMED:   with label lambda
PLUMED:   name: lambda
PLUMED: Action METAD
PLUMED:   with label metad
PLUMED:   with arguments lambda n
PLUMED:   added component to this action:  metad.bias
PLUMED:   Gaussian width  0.010000 0.050000  Gaussian height 12.394781
PLUMED:   Gaussian deposition pace 10
PLUMED:   Gaussian file HILLS_2D
PLUMED:   Well-Tempered Bias Factor 150.000000
PLUMED:   Hills relaxation time (tau) 0.595700
PLUMED:   KbT 2.477710
PLUMED:   Grid min 0 0
PLUMED:   Grid max 39 20
PLUMED:   Grid bin 39 100
PLUMED:   Grid uses spline interpolation
PLUMED:   WARNING: Using a METAD with a Grid Spacing larger than half of the Gaussians width (SIGMA) can produce artifacts
PLUMED:   WARNING: Using a METAD with a Grid Spacing larger than half of the Gaussians width (SIGMA) can produce artifacts
PLUMED:   Bibliography [3][4]
PLUMED: Action UPPER_WALLS
PLUMED:   with label uwall
PLUMED:   with arguments n
PLUMED:   added component to this action:  uwall.bias
PLUMED:   at 7.000000
PLUMED:   with an offset 0.000000
PLUMED:   with force constant 200.000000
PLUMED:   and exponent 2.000000
PLUMED:   rescaled 1.000000
PLUMED:   added component to this action:  uwall.force2
PLUMED: Action PRINT
PLUMED:   with label @6
PLUMED:   with stride 10
PLUMED:   with arguments n lambda metad.bias uwall.bias uwall.force2
PLUMED:   on file COLVAR
PLUMED:   with format  %f
PLUMED: END FILE: plumed.dat
PLUMED: Timestep: 0.002000
PLUMED: KbT: 2.477710
PLUMED: Relevant bibliography:
PLUMED:   [1] The PLUMED consortium, Nat. Methods 16, 670 (2019)
PLUMED:   [2] Tribello, Bonomi, Branduardi, Camilloni, and Bussi, Comput. Phys. Commun. 185, 604 (2014)
PLUMED:   [3] Laio and Parrinello, PNAS 99, 12562 (2002)
PLUMED:   [4] Barducci, Bussi, and Parrinello, Phys. Rev. Lett. 100, 020603 (2008)
PLUMED: Please read and cite where appropriate!
PLUMED: Finished setup
Started mdrun on rank 0 Fri Apr  8 14:38:30 2022

           Step           Time
              0        0.00000

   Energies (kJ/mol)
           Bond          Angle    Proper Dih. Ryckaert-Bell.  Improper Dih.
    2.11280e+02    9.59169e+02    1.83000e+02    2.82096e+02    5.30133e+01
          LJ-14     Coulomb-14        LJ (SR)  Disper. corr.   Coulomb (SR)
    1.23085e+02   -1.14113e+04    1.33627e+04   -6.15173e+02   -9.96682e+04
    9.28638e+02   -9.55917e+04    1.67097e+04   -7.88820e+04   -7.88820e+04
    Temperature Pres. DC (bar) Pressure (bar)      dVcoul/dl       dVvdw/dl
    2.99020e+02   -1.52603e+02    1.16733e+02    5.44922e+02    2.53199e+01
    0.00000e+00    0.00000e+00

	<====  A V E R A G E S  ====>

	Statistics over 500001 steps using 500001 frames

   Energies (kJ/mol)
           Bond          Angle    Proper Dih. Ryckaert-Bell.  Improper Dih.
    2.02193e+02    9.45614e+02    1.74067e+02    2.86582e+02    5.85671e+01
          LJ-14     Coulomb-14        LJ (SR)  Disper. corr.   Coulomb (SR)
    1.33486e+02   -1.14378e+04    1.32507e+04   -6.13396e+02   -9.92306e+04
   Coul. recip.      Potential    Kinetic En.   Total Energy  Conserved En.
    9.25375e+02   -9.53053e+04    1.66901e+04   -7.86152e+04   -3.44988e+04
    Temperature Pres. DC (bar) Pressure (bar)      dVcoul/dl       dVvdw/dl
    2.98670e+02   -1.52162e+02    2.58396e+01    3.48413e+02    2.48552e+01
 dVrestraint/dl   Constr. rmsd
    0.00000e+00    0.00000e+00

   Total Virial (kJ/mol)
    5.50552e+03   -3.13602e+00   -5.07305e+00
   -2.86010e+00    5.51936e+03    4.83363e+00
   -5.04193e+00    4.64557e+00    5.50917e+03

   Pressure (bar)
    2.80890e+01    7.14995e-01    1.61162e+00
    5.77953e-01    2.15819e+01   -2.79057e+00
    1.59616e+00   -2.69717e+00    2.78480e+01
